Circuit: *LTspice

Direct Newton iteration for .op point succeeded.
Ignoring empty pin current: Ix(_s4:1)
Ignoring empty pin current: Ix(_s4:2)
Ignoring empty pin current: Ix(_s4:3)
Ignoring empty pin current: Ix(_s4:4)
Ignoring empty pin current: Ix(_s5:1)
Ignoring empty pin current: Ix(_s5:2)
Ignoring empty pin current: Ix(_s5:3)
Ignoring empty pin current: Ix(_s5:4)
Ignoring empty pin current: Ix(_s6:1)
Ignoring empty pin current: Ix(_s6:2)
Ignoring empty pin current: Ix(_s6:3)
Ignoring empty pin current: Ix(_s6:4)
Ignoring empty pin current: Ix(_s7:1)
Ignoring empty pin current: Ix(_s7:2)
Ignoring empty pin current: Ix(_s7:3)
Ignoring empty pin current: Ix(_s7:4)
Ignoring empty pin current: Ix(_s8:1)
Ignoring empty pin current: Ix(_s8:2)
Ignoring empty pin current: Ix(_s8:3)
Ignoring empty pin current: Ix(_s8:4)
Ignoring empty pin current: Ix(_s3:1)
Ignoring empty pin current: Ix(_s3:2)
Ignoring empty pin current: Ix(_s3:3)
Ignoring empty pin current: Ix(_s3:4)
Ignoring empty pin current: Ix(_s2:1)
Ignoring empty pin current: Ix(_s2:2)
Ignoring empty pin current: Ix(_s2:3)
Ignoring empty pin current: Ix(_s2:4)
Ignoring empty pin current: Ix(_f1:1)
Ignoring empty pin current: Ix(_f1:2)
Ignoring empty pin current: Ix(_f1:3)
Ignoring empty pin current: Ix(_f1:4)
Ignoring empty pin current: Ix(u1:18)
Ignoring empty pin current: Ix(_s4:1)
Ignoring empty pin current: Ix(_s4:2)
Ignoring empty pin current: Ix(_s4:3)
Ignoring empty pin current: Ix(_s4:4)
Ignoring empty pin current: Ix(_s5:1)
Ignoring empty pin current: Ix(_s5:2)
Ignoring empty pin current: Ix(_s5:3)
Ignoring empty pin current: Ix(_s5:4)
Ignoring empty pin current: Ix(_s6:1)
Ignoring empty pin current: Ix(_s6:2)
Ignoring empty pin current: Ix(_s6:3)
Ignoring empty pin current: Ix(_s6:4)
Ignoring empty pin current: Ix(_s7:1)
Ignoring empty pin current: Ix(_s7:2)
Ignoring empty pin current: Ix(_s7:3)
Ignoring empty pin current: Ix(_s7:4)
Ignoring empty pin current: Ix(_s8:1)
Ignoring empty pin current: Ix(_s8:2)
Ignoring empty pin current: Ix(_s8:3)
Ignoring empty pin current: Ix(_s8:4)
Ignoring empty pin current: Ix(_s3:1)
Ignoring empty pin current: Ix(_s3:2)
Ignoring empty pin current: Ix(_s3:3)
Ignoring empty pin current: Ix(_s3:4)
Ignoring empty pin current: Ix(_s2:1)
Ignoring empty pin current: Ix(_s2:2)
Ignoring empty pin current: Ix(_s2:3)
Ignoring empty pin current: Ix(_s2:4)
Ignoring empty pin current: Ix(_f1:1)
Ignoring empty pin current: Ix(_f1:2)
Ignoring empty pin current: Ix(_f1:3)
Ignoring empty pin current: Ix(_f1:4)
Ignoring empty pin current: Ix(u1:18)
Heightened Def Con from 8.33098e-007 to 8.33348e-007
Heightened Def Con from 0.000559202 to 0.000559202
Heightened Def Con from 0.000560854 +to 0.000560854
Heightened Def Con from 0.000565086 to 0.000565089
Heightened Def Con from 0.00056554 to 0.000565543
Heightened Def Con from 0.000565669 to 0.000565669
Heightened Def Con from 0.000566545 +to 0.000566545
Heightened Def Con from 0.000567133 to 0.000567133
Heightened Def Con from 0.000569967 to 0.00056997
Heightened Def Con from 0.000570863 to 0.000570866
Heightened Def Con from 0.000570987 to 0.000570987
Heightened Def Con from 0.000572487 +to 0.000572487
Heightened Def Con from 0.00057612 +to 0.000576121
Heightened Def Con from 0.000576429 +to 0.000576429
Heightened Def Con from 0.000577963 to 0.000577963
Heightened Def Con from 0.000578266 to 0.000578266
Heightened Def Con from 0.000579822 to 0.000579822
Heightened Def Con from 0.000583481 to 0.000583481
Heightened Def Con from 0.000583481 to 0.000583481
Heightened Def Con from 0.000593296 to 0.000593296
Heightened Def Con from 0.000594982 to 0.000594982
Heightened Def Con from 0.000597133 to 0.000597133
Heightened Def Con from 0.000600941 to 0.000600941
Heightened Def Con from 0.000601998 to 0.000601998
Heightened Def Con from 0.000602948 to 0.000602948
Heightened Def Con from 0.000602948 to 0.000602948
Heightened Def Con from 0.000610978 to 0.000610978
Heightened Def Con from 0.000614314 to 0.000614314
Heightened Def Con from 0.000616945 ++++++++++++++++++++++to 0.000616945
Heightened Def Con from 0.000618459 to 0.000618459
Heightened Def Con from 0.000621422 to 0.000621422
Heightened Def Con from 0.000623753 to 0.000623756
Heightened Def Con from 0.000624245 to 0.000624245
Heightened Def Con from 0.000626208 to 0.000626208
Heightened Def Con from 0.000627688 to 0.000627688
Heightened Def Con from 0.00063657 to 0.00063657
Heightened Def Con from 0.000636669 +to 0.000636669
Heightened Def Con from 0.000639472 to 0.000639472
Heightened Def Con from 0.000639472 to 0.000639472
Heightened Def Con from 0.000641139 to 0.000641142
Heightened Def Con from 0.000642493 to 0.000642493
Heightened Def Con from 0.000652777 to 0.000652777
Heightened Def Con from 0.000656184 to 0.000656184
Heightened Def Con from 0.000656184 to 0.000656185
Heightened Def Con from 0.000657169 to 0.000657172
Heightened Def Con from 0.000658509 to 0.000658509
Heightened Def Con from 0.00066119 to 0.00066119
Heightened Def Con from 0.000669841 to 0.000669841
Heightened Def Con from 0.000671603 to 0.000671603
Heightened Def Con from 0.000682615 to 0.000682615
Heightened Def Con from 0.00068787 to 0.00068787
Heightened Def Con from 0.00068787 to 0.000687873
Heightened Def Con from 0.000691908 to 0.000691911
Heightened Def Con from 0.000692801 to 0.000692801
Heightened Def Con from 0.000692801 to 0.000692801
Heightened Def Con from 0.000700831 to 0.000700831
Heightened Def Con from 0.000700831 to 0.000700831
Heightened Def Con from 0.000707576 ++++++++++++++++++++++++to 0.000707576
Heightened Def Con from 0.000719631 +to 0.000719631
Heightened Def Con from 0.000723374 to 0.000723374
Heightened Def Con from 0.000735863 ++++++++++++++++++++++++to 0.000735863
Heightened Def Con from 0.000740284 to 0.000740287
Heightened Def Con from 0.000744194 to 0.000744194
Heightened Def Con from 0.000746441 to 0.000746441
Heightened Def Con from 0.00074974 to 0.00074974
Heightened Def Con from 0.00074974 to 0.00074974
Heightened Def Con from 0.000752011 to 0.000752014
Heightened Def Con from 0.000756572 to 0.000756572
Heightened Def Con from 0.000756572 to 0.000756572
Heightened Def Con from 0.000764754 to 0.000764754
Heightened Def Con from 0.000765241 to 0.000765242
Heightened Def Con from 0.000768243 ++++++++++++++++++++++++to 0.000768243
Heightened Def Con from 0.000772935 to 0.000772935
Heightened Def Con from 0.000772935 to 0.000772935
Heightened Def Con from 0.000782443 to 0.000782443
Heightened Def Con from 0.00078304 to 0.00078304
Heightened Def Con from 0.00078304 to 0.00078304
Heightened Def Con from 0.000783641 ++++++++++++++++++++++++to 0.000783641
Heightened Def Con from 0.00078906 to 0.00078906
Heightened Def Con from 0.000790268 ++++++++++++++++++++++++to 0.000790268
Heightened Def Con from 0.000793823 to 0.000793823
Heightened Def Con from 0.000793823 to 0.000793824
Heightened Def Con from 0.000797568 to 0.000797568
Heightened Def Con from 0.000800012 to 0.000800012
Heightened Def Con from 0.000800012 to 0.000800013
Heightened Def Con from 0.000808656 to 0.000808656
Heightened Def Con from 0.000809277 ++++++++++++++++++++++++to 0.000809277
Heightened Def Con from 0.000811145 to 0.000811145
Heightened Def Con from 0.000814168 to 0.000814169
Heightened Def Con from 0.000814257 to 0.00081426
Heightened Def Con from 0.000814805 to 0.000814805
Heightened Def Con from 0.000814805 to 0.000814805
Heightened Def Con from 0.000818561 to 0.000818561
Heightened Def Con from 0.000818561 to 0.000818561
Heightened Def Con from 0.00081865 ++++++++++++++++++++++++to 0.00081865
Heightened Def Con from 0.000819818 to 0.000819818
Heightened Def Con from 0.000819818 to 0.000819818
Heightened Def Con from 0.000824229 to 0.000824229
Heightened Def Con from 0.000824229 to 0.000824229
Heightened Def Con from 0.000826219 to 0.000826219
Heightened Def Con from 0.000828125 to 0.000828125
Heightened Def Con from 0.000829397 ++++++++++++++++++++++++to 0.000829397
Heightened Def Con from 0.000831947 to 0.000831947
Heightened Def Con from 0.000846723 ++++++++++++++++++++++++to 0.000846723
Heightened Def Con from 0.000848021 to 0.000848021
Heightened Def Con from 0.000848671 ++++++++++++++++++++++++to 0.000848671
Heightened Def Con from 0.000860413 to 0.000860413
Heightened Def Con from 0.000860413 to 0.000860413
Heightened Def Con from 0.000875571 to 0.000875571
Heightened Def Con from 0.000876238 to 0.000876238
Heightened Def Con from 0.000879571 to 0.000879571
Heightened Def Con from 0.000879571 to 0.000879571
Heightened Def Con from 0.000890944 to 0.000890947
Heightened Def Con from 0.000911262 to 0.000911262
Heightened Def Con from 0.000916056 to 0.000916059
Heightened Def Con from 0.000918046 to 0.000918046
Heightened Def Con from 0.000918046 to 0.000918046
Heightened Def Con from 0.00092217 +to 0.000922171
Heightened Def Con from 0.000927068 to 0.000927068
Heightened Def Con from 0.000928367 to 0.000928367
Heightened Def Con from 0.000933272 to 0.000933274
Heightened Def Con from 0.000940197 to 0.0009402
Heightened Def Con from 0.00094498 to 0.000944985
Heightened Def Con from 0.000948562 +to 0.000948562
Heightened Def Con from 0.000950571 to 0.000950572
Heightened Def Con from 0.000950572 to 0.000950572
Heightened Def Con from 0.000954172 to 0.000954172
Heightened Def Con from 0.000967569 to 0.000967569
Heightened Def Con from 0.000968982 to 0.000968982
Heightened Def Con from 0.00098379 to 0.00098379
Heightened Def Con from 0.000985216 to 0.000985217
Heightened Def Con from 0.000985217 to 0.000985217
Heightened Def Con from 0.00098951 to 0.00098951
Heightened Def Con from 0.00098951 to 0.00098951
Heightened Def Con from 0.000991745 to 0.000991745
Heightened Def Con from 0.00099529 to 0.00099529
Heightened Def Con from 0.000996728 to 0.000996728
Heightened Def Con from 0.000996728 to 0.000996728
Heightened Def Con from 0.000998886 to 0.000998886
Heightened Def Con from 0.000998886 to 0.000998886
Heightened Def Con from 0.00100105 to 0.00100105
Heightened Def Con from 0.00100251 to 0.00100251
Heightened Def Con from 0.0010053 +to 0.0010053
Heightened Def Con from 0.00100674 to 0.00100674
Heightened Def Con from 0.00101183 ++++++++++++++++++++++++++to 0.00101183
Heightened Def Con from 0.00101905 ++to 0.00101905
Heightened Def Con from 0.00101978 to 0.00101978
Heightened Def Con from 0.0010205 to 0.0010205
Heightened Def Con from 0.00102839 to 0.00102839
Heightened Def Con from 0.00102839 to 0.0010284
Heightened Def Con from 0.00103131 to 0.00103131
Heightened Def Con from 0.00103431 to 0.00103431
Heightened Def Con from 0.00103504 to 0.00103504
Heightened Def Con from 0.00103568 to 0.00103568
Heightened Def Con from 0.00103568 to 0.00103568
Heightened Def Con from 0.00103797 to 0.00103797
Heightened Def Con from 0.00104007 +to 0.00104007
Heightened Def Con from 0.00104966 to 0.00104966
Heightened Def Con from 0.00106204 to 0.00106204
Heightened Def Con from 0.00106204 to 0.00106204
Heightened Def Con from 0.0010658 to 0.0010658
Heightened Def Con from 0.00107014 to 0.00107014
Heightened Def Con from 0.00107014 to 0.00107014
Heightened Def Con from 0.00108423 to 0.00108423
Heightened Def Con from 0.00108564 to 0.00108564
Heightened Def Con from 0.00108646 to 0.00108646
Heightened Def Con from 0.00109017 +++++++++++++++++++++++++to 0.00109017
Heightened Def Con from 0.00109082 to 0.00109082
Heightened Def Con from 0.00109239 to 0.00109239
Heightened Def Con from 0.00109314 to 0.00109315
Heightened Def Con from 0.00109834 +to 0.00109834
Heightened Def Con from 0.00110123 to 0.00110123
Heightened Def Con from 0.00110123 to 0.00110123
Heightened Def Con from 0.00110132 to 0.00110132
Heightened Def Con from 0.00110653 to 0.00110653
Heightened Def Con from 0.00111322 to 0.00111322
Heightened Def Con from 0.00111918 +++++++++++++++++++++to 0.00111918
Heightened Def Con from 0.00111994 to 0.00111994
Heightened Def Con from 0.00112291 to 0.00112291
Heightened Def Con from 0.00112508 to 0.00112508
Heightened Def Con from 0.00112741 to 0.00112741
Heightened Def Con from 0.0011469 to 0.0011469
Heightened Def Con from 0.00115217 to 0.00115217
Heightened Def Con from 0.00116042 +to 0.00116042
Heightened Def Con from 0.00116269 +++++++++++++++++++++++++to 0.00116269
Heightened Def Con from 0.00117239 +to 0.00117239
Heightened Def Con from 0.0011754 to 0.0011754
Heightened Def Con from 0.00117701 ++++++++++++++++++++++++to 0.00117701
Heightened Def Con from 0.00117777 to 0.00117777
Heightened Def Con from 0.00117994 +to 0.00117994
Heightened Def Con from 0.00118379 +++++++++++++++++++++++++to 0.00118379
Heightened Def Con from 0.00118605 to 0.00118606
Heightened Def Con from 0.00119125 to 0.00119125
Heightened Def Con from 0.00119125 to 0.00119125
Heightened Def Con from 0.0011974 ++++++++++++++++++++++++++to 0.0011974
Heightened Def Con from 0.00119968 to 0.00119968
Heightened Def Con from 0.00120045 to 0.00120046
Heightened Def Con from 0.00120197 to 0.00120197
Heightened Def Con from 0.001205 +++++++++++++++++++++++++to 0.001205
Heightened Def Con from 0.00120568 to 0.00120568
Heightened Def Con from 0.00120568 to 0.00120568
Heightened Def Con from 0.00120653 to 0.00120654
Heightened Def Con from 0.00121487 to 0.00121487
Heightened Def Con from 0.00122694 +to 0.00122694
Heightened Def Con from 0.00123075 to 0.00123075
Heightened Def Con from 0.00123075 to 0.00123075
Heightened Def Con from 0.00123159 to 0.00123159
Heightened Def Con from 0.00123159 to 0.0012316
Heightened Def Con from 0.00123236 to 0.00123236
Heightened Def Con from 0.00123617 to 0.00123617
Heightened Def Con from 0.00123771 to 0.00123771
Heightened Def Con from 0.00123991 to 0.00123991
Heightened Def Con from 0.00123991 to 0.00123991
Heightened Def Con from 0.00124077 ++++++++++++++++++++++++to 0.00124077
Heightened Def Con from 0.00124381 ++++++++++++++++++++++++++to 0.00124381
Heightened Def Con from 0.00125371 to 0.00125371
Heightened Def Con from 0.00125448 to 0.00125448
Heightened Def Con from 0.00126593 to 0.00126593
Heightened Def Con from 0.00126669 to 0.00126669
Heightened Def Con from 0.00127278 to 0.00127278
Heightened Def Con from 0.00127347 to 0.00127347
Heightened Def Con from 0.00127432 to 0.00127433
Heightened Def Con from 0.00127661 ++++++++++++++++++++++++++to 0.00127661
Heightened Def Con from 0.00127814 to 0.00127814
Heightened Def Con from 0.00128196 to 0.00128196
Heightened Def Con from 0.00128272 ++++++++++++++++++++++++++to 0.00128272
Heightened Def Con from 0.00128425 +++++++++++++++++++++++++to 0.00128425
Heightened Def Con from 0.00129104 +to 0.00129104
Heightened Def Con from 0.00129113 to 0.00129113
Heightened Def Con from 0.00129257 to 0.00129257
Heightened Def Con from 0.00129343 to 0.00129343
Heightened Def Con from 0.00129574 to 0.00129574
Heightened Def Con from 0.00130639 to 0.00130639
Heightened Def Con from 0.00130639 to 0.00130639
Heightened Def Con from 0.00130648 to 0.00130648
Heightened Def Con from 0.00130955 to 0.00130955
Heightened Def Con from 0.00131722 to 0.00131722
Heightened Def Con from 0.0013203 to 0.0013203
Heightened Def Con from 0.00132261 to 0.00132261
Heightened Def Con from 0.00132799 to 0.00132799
Heightened Def Con from 0.00132799 to 0.00132799
Heightened Def Con from 0.00132944 to 0.00132944
Heightened Def Con from 0.00132944 to 0.00132944
Heightened Def Con from 0.00134019 to 0.00134019
Heightened Def Con from 0.00134019 to 0.00134019
Heightened Def Con from 0.00134181 to 0.00134181
Heightened Def Con from 0.00134643 to 0.00134643
Heightened Def Con from 0.00136028 to 0.00136029
Heightened Def Con from 0.00136328 to 0.00136328
Heightened Def Con from 0.00137175 to 0.00137175
Heightened Def Con from 0.00137175 to 0.00137175
Heightened Def Con from 0.00137261 to 0.00137261
Heightened Def Con from 0.00137715 to 0.00137716
Heightened Def Con from 0.00138484 to 0.00138484
Heightened Def Con from 0.00138484 to 0.00138484
Heightened Def Con from 0.00138561 to 0.00138561
Heightened Def Con from 0.00138879 to 0.0013888
Heightened Def Con from 0.00138958 to 0.00138958
Heightened Def Con from 0.00139575 to 0.00139575
Heightened Def Con from 0.0014004 to 0.00140041
Heightened Def Con from 0.00140041 to 0.00140041
Heightened Def Con from 0.00140272 ++++++++++++++++++++++++++to 0.00140272
Heightened Def Con from 0.00140418 to 0.00140418
Heightened Def Con from 0.00140418 to 0.00140418
Heightened Def Con from 0.00140581 to 0.00140581
Heightened Def Con from 0.00140967 ++++++++++++++++++++++++++to 0.00140967
Heightened Def Con from 0.00141199 to 0.00141199
Heightened Def Con from 0.00141577 +to 0.00141577
Heightened Def Con from 0.00141972 to 0.00141972
Heightened Def Con from 0.00143197 to 0.00143197
Heightened Def Con from 0.00143197 to 0.00143197
Heightened Def Con from 0.00143429 to 0.00143429
Heightened Def Con from 0.00143429 to 0.00143429
Heightened Def Con from 0.00143826 to 0.00143827
Heightened Def Con from 0.00144674 to 0.00144675
Heightened Def Con from 0.00144821 to 0.00144821
Heightened Def Con from 0.00144821 to 0.00144821
Heightened Def Con from 0.00145061 to 0.00145061
Heightened Def Con from 0.00145294 to 0.00145294
Heightened Def Con from 0.00145835 to 0.00145835
Heightened Def Con from 0.00148157 to 0.00148157
Heightened Def Con from 0.00148313 to 0.00148313
Heightened Def Con from 0.00148467 to 0.00148467
Heightened Def Con from 0.0014901 to 0.0014901
Heightened Def Con from 0.00149088 to 0.00149088
Heightened Def Con from 0.00150016 to 0.00150016
Heightened Def Con from 0.00150085 to 0.00150085
Heightened Def Con from 0.00150085 to 0.00150085
Heightened Def Con from 0.0015056 to 0.0015056
Heightened Def Con from 0.00151102 to 0.00151102
Heightened Def Con from 0.00151954 to 0.00151954
Heightened Def Con from 0.00152257 +to 0.00152257
Heightened Def Con from 0.00152488 to 0.00152488
Heightened Def Con from 0.0015273 to 0.0015273
Heightened Def Con from 0.00152964 ++++++++++++++++++++++++++to 0.00152964
Heightened Def Con from 0.00153119 ++++++++++++++++++++++++++to 0.00153119
Heightened Def Con from 0.00153343 to 0.00153343
Heightened Def Con from 0.00153576 to 0.00153576
Heightened Def Con from 0.00153576 to 0.00153576
Heightened Def Con from 0.0015374 to 0.0015374
Heightened Def Con from 0.00153973 to 0.00153973
Heightened Def Con from 0.00154051 to 0.00154052
Heightened Def Con from 0.00154596 ++++++++++++++++++++++++++to 0.00154596
Heightened Def Con from 0.00155604 to 0.00155604
Heightened Def Con from 0.00156217 to 0.00156217
Heightened Def Con from 0.00156217 to 0.00156217
Heightened Def Con from 0.0015645 to 0.0015645
Heightened Def Con from 0.00156682 to 0.00156682
Heightened Def Con from 0.00157623 to 0.00157623
Heightened Def Con from 0.00157769 +++++++++++++++++++++++++to 0.00157769
Heightened Def Con from 0.00158477 to 0.00158477
Heightened Def Con from 0.00159566 to 0.00159566
Heightened Def Con from 0.00159644 +to 0.00159644
Heightened Def Con from 0.00159878 to 0.00159879
Heightened Def Con from 0.00160032 to 0.00160032
Heightened Def Con from 0.00160033 to 0.00160033
Heightened Def Con from 0.00160187 to 0.00160187
Heightened Def Con from 0.00160345 to 0.00160346
Heightened Def Con from 0.00161041 to 0.00161041
Heightened Def Con from 0.00161429 to 0.00161429
Heightened Def Con from 0.00161896 to 0.00161896
Heightened Def Con from 0.00162128 to 0.00162128
Heightened Def Con from 0.00162518 to 0.00162518
Heightened Def Con from 0.00163907 to 0.00163907
Heightened Def Con from 0.00163907 to 0.00163907
Heightened Def Con from 0.00164149 to 0.00164149
Heightened Def Con from 0.00164305 to 0.00164305
Heightened Def Con from 0.00165463 to 0.00165463
Heightened Def Con from 0.00165861 to 0.00165861
Heightened Def Con from 0.00165861 to 0.00165861
Heightened Def Con from 0.00166716 to 0.00166716
Heightened Def Con from 0.00167183 ++++++++++++++++++++++++++to 0.00167183
Heightened Def Con from 0.00167261 to 0.00167261
Heightened Def Con from 0.00167338 ++++++++++++++++++++++++++to 0.00167338
Heightened Def Con from 0.00167719 to 0.0016772
Heightened Def Con from 0.00167806 to 0.00167807
Heightened Def Con from 0.0016843 to 0.0016843
Heightened Def Con from 0.00168887 to 0.00168887
Heightened Def Con from 0.00168895 ++++++++++++++++++++++++++to 0.00168895
Heightened Def Con from 0.00169985 to 0.00169985
Heightened Def Con from 0.00170218 ++++++++++++++++++++++++++to 0.00170218
Heightened Def Con from 0.00170452 +to 0.00170452
Heightened Def Con from 0.00170832 to 0.00170832
Heightened Def Con from 0.00171307 to 0.00171307
Heightened Def Con from 0.00171776 to 0.00171776
Heightened Def Con from 0.0017193 +to 0.0017193
Heightened Def Con from 0.00173409 to 0.00173409
Heightened Def Con from 0.00173713 to 0.00173713
Heightened Def Con from 0.00174032 +++to 0.00174032
Heightened Def Con from 0.00174413 to 0.00174413
Heightened Def Con from 0.00175121 to 0.00175122
Heightened Def Con from 0.001752 to 0.001752
Heightened Def Con from 0.00175433 to 0.00175433
Heightened Def Con from 0.0017598 ++++++++++++++++++++++++++to 0.0017598
Heightened Def Con from 0.00176448 to 0.00176448
Heightened Def Con from 0.00176526 to 0.00176526
Heightened Def Con from 0.00177995 to 0.00177995
Heightened Def Con from 0.00178229 to 0.00178229
Heightened Def Con from 0.00178316 to 0.00178316
Heightened Def Con from 0.00179475 to 0.00179475
Heightened Def Con from 0.00179475 to 0.00179475
Heightened Def Con from 0.00180029 to 0.00180029
Heightened Def Con from 0.00180573 to 0.00180574
Heightened Def Con from 0.00180885 to 0.00180885
Heightened Def Con from 0.00181032 to 0.00181032
Heightened Def Con from 0.00181032 to 0.00181032
Heightened Def Con from 0.00181351 to 0.00181351
Heightened Def Con from 0.00181351 to 0.00181351
Heightened Def Con from 0.00181421 +to 0.00181421
Heightened Def Con from 0.00181742 to 0.00181742
Heightened Def Con from 0.00181899 to 0.001819
Heightened Def Con from 0.00182055 to 0.00182055
Heightened Def Con from 0.00184305 to 0.00184305
Heightened Def Con from 0.0018447 to 0.0018447
Heightened Def Con from 0.00184624 to 0.00184624
Heightened Def Con from 0.00184781 to 0.00184781
Heightened Def Con from 0.00185393 +to 0.00185393
Heightened Def Con from 0.00185557 to 0.00185557
Heightened Def Con from 0.00185714 to 0.00185714
Heightened Def Con from 0.00186018 to 0.00186018
Heightened Def Con from 0.00186018 to 0.00186018
Heightened Def Con from 0.00187109 to 0.00187109
Heightened Def Con from 0.00187109 to 0.00187109
Heightened Def Con from 0.00187117 to 0.00187117
Heightened Def Con from 0.00187274 to 0.00187274
Heightened Def Con from 0.00187733 to 0.00187733
Heightened Def Con from 0.00188132 to 0.00188132
Heightened Def Con from 0.00189065 to 0.00189065
Heightened Def Con from 0.00190154 to 0.00190154
Heightened Def Con from 0.00191165 to 0.00191165
Heightened Def Con from 0.00191634 to 0.00191634
Heightened Def Con from 0.00193657 to 0.00193657
Heightened Def Con from 0.00193813 to 0.00193813
Heightened Def Con from 0.00193813 to 0.00193813
Heightened Def Con from 0.00194203 ++++++++++++++++++++++++++to 0.00194203
Heightened Def Con from 0.00194203 to 0.00194204
Heightened Def Con from 0.00194438 to 0.00194438
Heightened Def Con from 0.0019514 ++++++++++++++++++++++++++to 0.0019514
Heightened Def Con from 0.00195217 to 0.00195217
Heightened Def Con from 0.00195451 to 0.00195451
Heightened Def Con from 0.00195598 to 0.00195598
Heightened Def Con from 0.00195598 to 0.00195598
Heightened Def Con from 0.00196065 to 0.00196065
Heightened Def Con from 0.00196074 to 0.00196074
Heightened Def Con from 0.00196143 to 0.00196143
Heightened Def Con from 0.00196221 to 0.00196221
Heightened Def Con from 0.00196221 to 0.00196221
Heightened Def Con from 0.00196853 to 0.00196853
Heightened Def Con from 0.00197554 ++++++++++++++++++++++++++to 0.00197554
Heightened Def Con from 0.00198412 to 0.00198412
Heightened Def Con from 0.00199112 ++++++++++++++++++++++++++to 0.00199112
Heightened Def Con from 0.00199345 ++++++++++++++++++++++++to 0.00199345
Heightened Def Con from 0.00199423 to 0.00199423
Heightened Def Con from 0.00199579 to 0.00199579
Heightened Def Con from 0.00199656 to 0.00199656
Heightened Def Con from 0.00199734 to 0.00199734
Heightened Def Con from 0.00200046 ++++++++++++++++++++++++++to 0.00200046
Heightened Def Con from 0.00200514 to 0.00200514
Heightened Def Con from 0.00201449 to 0.00201449
Heightened Def Con from 0.00201838 to 0.00201838
Heightened Def Con from 0.00202229 to 0.00202229
Heightened Def Con from 0.00202377 to 0.00202377
Heightened Def Con from 0.00202377 to 0.00202377
Heightened Def Con from 0.00202766 to 0.00202766
Heightened Def Con from 0.00202853 to 0.00202853
Heightened Def Con from 0.00202853 to 0.00202853
Heightened Def Con from 0.00203322 +to 0.00203322
Heightened Def Con from 0.00203479 to 0.0020348
Heightened Def Con from 0.00203634 +++++++++++++++++++++++++to 0.00203634
Heightened Def Con from 0.00203945 to 0.00203945
Heightened Def Con from 0.00204958 to 0.00204958
Heightened Def Con from 0.0020527 to 0.00205271
Heightened Def Con from 0.00205505 to 0.00205505
Heightened Def Con from 0.00205505 to 0.00205505
Heightened Def Con from 0.0020605 to 0.0020605
Heightened Def Con from 0.00206586 to 0.00206586
Heightened Def Con from 0.00206586 to 0.00206587
Heightened Def Con from 0.00206596 to 0.00206596
Heightened Def Con from 0.00206985 to 0.00206985
Heightened Def Con from 0.00207219 to 0.00207219
Heightened Def Con from 0.00207375 to 0.00207375
Heightened Def Con from 0.00209088 to 0.00209088
Heightened Def Con from 0.00209166 ++++++++++++++++++++++++++to 0.00209166
Heightened Def Con from 0.00210254 to 0.00210254
Heightened Def Con from 0.00210799 to 0.00210799
Heightened Def Con from 0.0021111 ++++++++++++++++++++++++++to 0.0021111
Heightened Def Con from 0.00211266 to 0.00211266
Heightened Def Con from 0.00211963 to 0.00211963
Heightened Def Con from 0.00212644 to 0.00212644
Heightened Def Con from 0.00212644 to 0.00212644
Heightened Def Con from 0.00212729 to 0.0021273
Heightened Def Con from 0.00214518 to 0.00214518
Heightened Def Con from 0.00215856 to 0.00215856
Heightened Def Con from 0.00216006 +to 0.00216006
Heightened Def Con from 0.00216555 +to 0.00216555
Heightened Def Con from 0.00217029 to 0.00217029
Heightened Def Con from 0.00217294 to 0.00217294
Heightened Def Con from 0.00217482 to 0.00217482
Heightened Def Con from 0.00217482 to 0.00217482
Heightened Def Con from 0.00217557 to 0.00217557
Heightened Def Con from 0.00217873 to 0.00217873
Heightened Def Con from 0.00217882 to 0.00217882
Heightened Def Con from 0.00218141 to 0.00218141
Heightened Def Con from 0.00218526 to 0.00218526
Heightened Def Con from 0.00219278 to 0.00219278
Heightened Def Con from 0.00219403 ++++++++++++++++++++++++++to 0.00219403
Heightened Def Con from 0.00219819 to 0.00219819
Heightened Def Con from 0.00220957 to 0.00220957
Heightened Def Con from 0.00221007 to 0.00221007
Heightened Def Con from 0.00221305 +++++++++++++++++++++++++to 0.00221305
Heightened Def Con from 0.0022142 to 0.0022142
Heightened Def Con from 0.0022209 to 0.0022209
Heightened Def Con from 0.00222155 to 0.00222155
Heightened Def Con from 0.00222155 to 0.00222155
Heightened Def Con from 0.00222212 to 0.00222212
Heightened Def Con from 0.00222979 to 0.00222979
Heightened Def Con from 0.00223781 to 0.00223781
Heightened Def Con from 0.00224409 to 0.00224409
Heightened Def Con from 0.00224459 ++to 0.00224459
Heightened Def Con from 0.00224562 +++++++++++++++++++++++++to 0.00224562
Heightened Def Con from 0.0022497 to 0.0022497
Heightened Def Con from 0.00225272 +++++++++++++++++++++++++to 0.00225272
Heightened Def Con from 0.00225621 +++++++++++++++++++++++++to 0.00225621
Heightened Def Con from 0.00226111 to 0.00226111
Heightened Def Con from 0.00226585 to 0.00226585
Heightened Def Con from 0.00226785 to 0.00226785
Heightened Def Con from 0.00226823 to 0.00226823
Heightened Def Con from 0.0022721 +++++++++++++++++++++++++to 0.0022721
Heightened Def Con from 0.00227304 to 0.00227304
Heightened Def Con from 0.00227435 to 0.00227435
Heightened Def Con from 0.00227538 to 0.00227538
Heightened Def Con from 0.00227769 +++++++++++++++++++++++++to 0.00227769
Heightened Def Con from 0.00227989 to 0.00227989
Heightened Def Con from 0.00228678 to 0.00228678
Heightened Def Con from 0.0022899 to 0.0022899
Heightened Def Con from 0.00230763 to 0.00230763
Heightened Def Con from 0.00231184 to 0.00231184
Heightened Def Con from 0.00231929 to 0.00231929
Heightened Def Con from 0.00232458 +++++++++++++++++++++++++to 0.00232458
Heightened Def Con from 0.00232771 to 0.00232771
Heightened Def Con from 0.00232981 +to 0.00232981
Heightened Def Con from 0.00234878 to 0.00234878
Heightened Def Con from 0.0023503 to 0.0023503
Heightened Def Con from 0.0023503 to 0.0023503
Heightened Def Con from 0.00235642 +++++++++++++++++++++++++to 0.00235642
Heightened Def Con from 0.0023578 to 0.00235781
Heightened Def Con from 0.00236893 +++++++++++++++++++++++++to 0.00236893
Heightened Def Con from 0.0023711 +to 0.0023711
Heightened Def Con from 0.0023778 to 0.0023778
Heightened Def Con from 0.00238029 to 0.00238029
Heightened Def Con from 0.00238029 to 0.00238029
Heightened Def Con from 0.00238075 to 0.00238075
Heightened Def Con from 0.00238627 to 0.00238627
Heightened Def Con from 0.00238627 to 0.00238627
Heightened Def Con from 0.00239195 +to 0.00239195
Heightened Def Con from 0.00239711 +to 0.00239711
Heightened Def Con from 0.00239917 to 0.00239917
Heightened Def Con from 0.00240121 to 0.00240121
Heightened Def Con from 0.00240223 to 0.00240223
Heightened Def Con from 0.00240963 to 0.00240963
Heightened Def Con from 0.00240985 to 0.00240985
Heightened Def Con from 0.00240985 to 0.00240985
Heightened Def Con from 0.00241129 to 0.00241129
Heightened Def Con from 0.00241318 to 0.00241318
Heightened Def Con from 0.00241384 +to 0.00241384
Heightened Def Con from 0.00241495 to 0.00241495
Heightened Def Con from 0.00241627 to 0.00241627
Heightened Def Con from 0.0024331 to 0.0024331
Heightened Def Con from 0.00243427 to 0.00243427
Heightened Def Con from 0.00243914 to 0.00243914
Heightened Def Con from 0.00244403 to 0.00244403
Heightened Def Con from 0.00245197 +++++++++++++++++++++++++to 0.00245197
Heightened Def Con from 0.0024526 to 0.0024526
Heightened Def Con from 0.00245632 +to 0.00245632
Heightened Def Con from 0.00245744 to 0.00245744
Heightened Def Con from 0.00245848 to 0.00245848
Heightened Def Con from 0.0024591 to 0.0024591
Heightened Def Con from 0.00246145 to 0.00246145
Heightened Def Con from 0.0024625 +++++++++++++++++++++++++to 0.0024625
Heightened Def Con from 0.00246299 to 0.00246299
Heightened Def Con from 0.00246373 +++++++++++++++++++++++++to 0.00246373
Heightened Def Con from 0.00246403 to 0.00246403
Heightened Def Con from 0.00246465 to 0.00246465
Heightened Def Con from 0.00246605 to 0.00246606
Heightened Def Con from 0.00246648 +to 0.00246648
Heightened Def Con from 0.00247032 to 0.00247033
Heightened Def Con from 0.00247457 to 0.00247457
Heightened Def Con from 0.00247469 +++++++++++++++++++++++++to 0.00247469
Heightened Def Con from 0.00247998 to 0.00247998
Heightened Def Con from 0.00248249 to 0.00248249
Heightened Def Con from 0.00248608 to 0.00248608
Heightened Def Con from 0.00248668 to 0.00248668
Heightened Def Con from 0.00249113 to 0.00249113
Heightened Def Con from 0.00249338 to 0.00249338
Heightened Def Con from 0.00249367 to 0.00249367
Heightened Def Con from 0.00249367 to 0.00249367
Heightened Def Con from 0.0024938 +to 0.0024938
Heightened Def Con from 0.00249616 to 0.00249616
Heightened Def Con from 0.00249823 to 0.00249823
Heightened Def Con from 0.00249957 to 0.00249957
Heightened Def Con from 0.0024997 to 0.0024997
Heightened Def Con from 0.00250615 to 0.00250615
Heightened Def Con from 0.00251781 to 0.00251782
Heightened Def Con from 0.00251898 to 0.00251898
Heightened Def Con from 0.00252723 +to 0.00252723
Heightened Def Con from 0.00252977 to 0.00252977
Heightened Def Con from 0.00252977 to 0.00252977
Heightened Def Con from 0.00254384 to 0.00254384
Heightened Def Con from 0.00254403 to 0.00254403
Heightened Def Con from 0.00254883 +to 0.00254883
Heightened Def Con from 0.00255262 +to 0.00255262
Heightened Def Con from 0.00255359 +++++++++++++++++++++++++to 0.00255359
Heightened Def Con from 0.0025538 to 0.0025538
Heightened Def Con from 0.0025538 to 0.0025538
Heightened Def Con from 0.00255574 to 0.00255574
Heightened Def Con from 0.00256236 to 0.00256236
Heightened Def Con from 0.00256483 to 0.00256483
Heightened Def Con from 0.00257372 to 0.00257372
Heightened Def Con from 0.00258126 to 0.00258126
Heightened Def Con from 0.00258173 to 0.00258173
Heightened Def Con from 0.0025843 to 0.00258431
Heightened Def Con from 0.00258794 to 0.00258794
Heightened Def Con from 0.00258794 to 0.00258794
Heightened Def Con from 0.00259443 +to 0.00259443
Heightened Def Con from 0.00259531 to 0.00259531
Heightened Def Con from 0.00260564 to 0.00260564
Heightened Def Con from 0.00260726 +++++++++++++++++++++++++to 0.00260726
Heightened Def Con from 0.00261087 to 0.00261087
Heightened Def Con from 0.00261179 to 0.00261179
Heightened Def Con from 0.00262452 to 0.00262452
Heightened Def Con from 0.00262539 to 0.00262539
Heightened Def Con from 0.00262659 to 0.00262659
Heightened Def Con from 0.00262669 to 0.00262669
Heightened Def Con from 0.00262669 to 0.00262669
Heightened Def Con from 0.00262845 +++++++++++++++++++++++++to 0.00262845
Heightened Def Con from 0.00263504 +to 0.00263504
Heightened Def Con from 0.00263649 to 0.00263649
Heightened Def Con from 0.00263921 to 0.00263921
Heightened Def Con from 0.00265613 to 0.00265613
Heightened Def Con from 0.00266441 to 0.00266441
Heightened Def Con from 0.00266491 to 0.00266491
Heightened Def Con from 0.0026704 to 0.0026704
Heightened Def Con from 0.00267191 to 0.00267191
Heightened Def Con from 0.00267384 to 0.00267384
Heightened Def Con from 0.00267699 to 0.00267699
Heightened Def Con from 0.00267749 to 0.00267749
Heightened Def Con from 0.00267852 +to 0.00267852
Heightened Def Con from 0.00269905 to 0.00269905
Heightened Def Con from 0.00270166 to 0.00270166
Heightened Def Con from 0.00270329 to 0.00270329
Heightened Def Con from 0.00270877 to 0.00270877
Heightened Def Con from 0.00270996 to 0.00270996
Heightened Def Con from 0.00270996 to 0.00270996
Heightened Def Con from 0.00271551 ++to 0.00271551
Heightened Def Con from 0.00271607 to 0.00271607
Heightened Def Con from 0.00271607 to 0.00271607
Heightened Def Con from 0.00271877 to 0.00271877
Heightened Def Con from 0.0027342 +++++++++++++++++++++++++to 0.0027342
Heightened Def Con from 0.00275239 +to 0.00275239
Heightened Def Con from 0.00275826 to 0.00275827
Heightened Def Con from 0.00276923 to 0.00276923
Heightened Def Con from 0.00277046 to 0.00277047
Heightened Def Con from 0.00277168 to 0.00277168
Heightened Def Con from 0.00277967 to 0.00277967
Heightened Def Con from 0.00277967 to 0.00277967
Heightened Def Con from 0.00278338 to 0.00278338
Heightened Def Con from 0.00278463 to 0.00278463
Heightened Def Con from 0.00278713 to 0.00278713
Heightened Def Con from 0.00279026 to 0.00279026
Heightened Def Con from 0.00279152 to 0.00279152
Heightened Def Con from 0.00279331 to 0.00279331
Heightened Def Con from 0.00279331 to 0.00279331
Heightened Def Con from 0.0027934 to 0.0027934
Heightened Def Con from 0.00279782 to 0.00279782
Heightened Def Con from 0.00279973 to 0.00279973
Heightened Def Con from 0.00280227 to 0.00280227
Heightened Def Con from 0.00280409 to 0.00280409
Heightened Def Con from 0.00280929 to 0.00280929
Heightened Def Con from 0.00281048 to 0.00281048
Heightened Def Con from 0.00281048 to 0.00281048
Heightened Def Con from 0.00281434 to 0.00281434
Heightened Def Con from 0.00281434 to 0.00281434
Heightened Def Con from 0.00281507 to 0.00281507
Heightened Def Con from 0.00282999 to 0.00282999
Heightened Def Con from 0.00283195 to 0.00283195
Heightened Def Con from 0.00283195 to 0.00283195
Heightened Def Con from 0.00283261 to 0.00283261
Heightened Def Con from 0.00283845 to 0.00283845
Heightened Def Con from 0.00284372 to 0.00284372
Heightened Def Con from 0.00284438 to 0.00284438
Heightened Def Con from 0.00284438 to 0.00284438
Heightened Def Con from 0.00284846 to 0.00284846
Heightened Def Con from 0.00286052 to 0.00286052
Heightened Def Con from 0.00286311 to 0.00286311
Heightened Def Con from 0.00286321 to 0.00286321
Heightened Def Con from 0.00286379 to 0.00286379
Heightened Def Con from 0.00286379 to 0.00286379
Heightened Def Con from 0.00286792 ++++++++++++++++++++++++++to 0.00286792
Heightened Def Con from 0.00288067 to 0.00288067
Heightened Def Con from 0.00288281 ++++++++++++++++++++++++++to 0.00288281
Heightened Def Con from 0.00288475 to 0.00288475
Heightened Def Con from 0.00288475 to 0.00288475
Heightened Def Con from 0.0028862 to 0.0028862
Heightened Def Con from 0.00288757 ++++++++++++++++++++++++++to 0.00288757
Heightened Def Con from 0.00288963 to 0.00288963
Heightened Def Con from 0.00289032 to 0.00289032
Heightened Def Con from 0.00289101 to 0.00289101
Heightened Def Con from 0.00289239 to 0.00289239
Heightened Def Con from 0.00289369 to 0.00289369
Heightened Def Con from 0.00289369 to 0.00289369
Heightened Def Con from 0.00289722 to 0.00289722
Heightened Def Con from 0.00289791 to 0.00289791
Heightened Def Con from 0.0028993 to 0.0028993
Heightened Def Con from 0.00290274 to 0.00290274
Heightened Def Con from 0.00291871 to 0.00291871
Heightened Def Con from 0.0029299 to 0.0029299
Heightened Def Con from 0.00293122 to 0.00293122
Heightened Def Con from 0.00293484 to 0.00293484
Heightened Def Con from 0.00293617 to 0.00293617
Heightened Def Con from 0.00293617 to 0.00293617
Heightened Def Con from 0.00293908 to 0.00293908
Heightened Def Con from 0.00294252 to 0.00294252
Heightened Def Con from 0.00294608 to 0.00294608
Heightened Def Con from 0.00295399 to 0.00295399
Heightened Def Con from 0.00295533 +to 0.00295533
Heightened Def Con from 0.00295604 to 0.00295604
Heightened Def Con from 0.00295604 to 0.00295604
Heightened Def Con from 0.00295676 to 0.00295676
Heightened Def Con from 0.00295676 to 0.00295676
Heightened Def Con from 0.00296172 to 0.00296172
Heightened Def Con from 0.00296172 to 0.00296172
Heightened Def Con from 0.00296315 to 0.00296315
Heightened Def Con from 0.00296324 to 0.00296324
Heightened Def Con from 0.00297533 to 0.00297533
Heightened Def Con from 0.00297533 to 0.00297533
Heightened Def Con from 0.00298334 to 0.00298334
Heightened Def Con from 0.00298406 ++++++++++++++++++++++++++to 0.00298406
Heightened Def Con from 0.0029847 to 0.0029847
Heightened Def Con from 0.00299192 +to 0.00299192
Heightened Def Con from 0.00299491 +to 0.00299491
Heightened Def Con from 0.00299927 to 0.00299927
Heightened Def Con from 0.00300509 ++++++++++++++++++++++++++to 0.00300509
Heightened Def Con from 0.00300874 to 0.00300874
Heightened Def Con from 0.00301165 to 0.00301165
Heightened Def Con from 0.00301165 to 0.00301165
Heightened Def Con from 0.00301887 to 0.00301887
Heightened Def Con from 0.00301887 to 0.00301887
Heightened Def Con from 0.00303289 to 0.00303289
Heightened Def Con from 0.00303363 to 0.00303363
Heightened Def Con from 0.00303723 to 0.00303723
Heightened Def Con from 0.00303723 to 0.00303723
Heightened Def Con from 0.00303879 to 0.00303879
Heightened Def Con from 0.00304312 to 0.00304312
Heightened Def Con from 0.00305724 to 0.00305724
Heightened Def Con from 0.00306307 to 0.00306307
Heightened Def Con from 0.00306678 to 0.00306678
Heightened Def Con from 0.00306678 to 0.00306678
Heightened Def Con from 0.00307133 to 0.00307133
Heightened Def Con from 0.003078 to 0.003078
Heightened Def Con from 0.00307875 to 0.00307875
Heightened Def Con from 0.00308023 to 0.00308023
Heightened Def Con from 0.00308321 to 0.00308321
Heightened Def Con from 0.00308396 to 0.00308396
Heightened Def Con from 0.0030847 ++++++++++++++++++++++++to 0.0030847
Heightened Def Con from 0.00309292 to 0.00309292
Heightened Def Con from 0.00311454 to 0.00311454
Heightened Def Con from 0.00312282 to 0.00312282
Heightened Def Con from 0.00312807 to 0.00312807
Heightened Def Con from 0.00313251 ++++++++++++++++++++++++++to 0.00313251
Heightened Def Con from 0.00314005 to 0.00314005
Heightened Def Con from 0.00314005 to 0.00314005
Heightened Def Con from 0.00314089 to 0.00314089
Heightened Def Con from 0.00314918 to 0.00314918
Heightened Def Con from 0.00314995 to 0.00314995
Heightened Def Con from 0.00315297 ++++++++++++++++++++++++++to 0.00315297
Heightened Def Con from 0.0031544 to 0.0031544
Heightened Def Con from 0.00315516 to 0.00315516
Heightened Def Con from 0.00315673 to 0.00315673
Heightened Def Con from 0.00315673 to 0.00315674
Heightened Def Con from 0.0031575 to 0.0031575
Heightened Def Con from 0.00318248 to 0.00318248
Heightened Def Con from 0.00318618 to 0.00318618
Heightened Def Con from 0.0031893 to 0.0031893
Heightened Def Con from 0.00319074 to 0.00319074
Heightened Def Con from 0.00320071 to 0.00320071
Heightened Def Con from 0.00320375 to 0.00320375
Heightened Def Con from 0.00321127 to 0.00321127
Heightened Def Con from 0.00321213 to 0.00321213
Heightened Def Con from 0.00321518 to 0.00321518
Heightened Def Con from 0.00321594 to 0.00321594
Heightened Def Con from 0.0032167 to 0.0032167
Heightened Def Con from 0.00321899 to 0.00321899
Heightened Def Con from 0.00322281 to 0.00322281
Heightened Def Con from 0.00322359 to 0.0032236
Heightened Def Con from 0.00322962 to 0.00322962
Heightened Def Con from 0.00323114 to 0.00323114
Heightened Def Con from 0.00323114 to 0.00323114
Heightened Def Con from 0.00323429 +to 0.00323429
Heightened Def Con from 0.00323429 to 0.00323429
Heightened Def Con from 0.00323888 to 0.00323888
Heightened Def Con from 0.00324337 +++++++++++++++++++++++++to 0.00324337
Heightened Def Con from 0.00324413 to 0.00324413
Heightened Def Con from 0.00324497 to 0.00324497
Heightened Def Con from 0.00324575 to 0.00324575
Heightened Def Con from 0.00325262 to 0.00325262
Heightened Def Con from 0.00325568 to 0.00325568
Heightened Def Con from 0.00325568 to 0.00325568
Heightened Def Con from 0.00325569 to 0.0032557
Heightened Def Con from 0.00325645 to 0.00325645
Heightened Def Con from 0.00325876 to 0.00325876
Heightened Def Con from 0.00327476 to 0.00327476
Heightened Def Con from 0.00327476 to 0.00327476
Heightened Def Con from 0.00329009 to 0.00329009
Heightened Def Con from 0.00329009 to 0.00329009
Heightened Def Con from 0.00329239 +to 0.0032924
Heightened Def Con from 0.00330165 +++++++++++++++++++++++++to 0.00330165
Heightened Def Con from 0.00330242 ++to 0.00330242
Heightened Def Con from 0.00330396 to 0.00330396
Heightened Def Con from 0.00331694 to 0.00331694
Heightened Def Con from 0.00331694 to 0.00331694
Heightened Def Con from 0.00331925 +to 0.00331925
Heightened Def Con from 0.00332695 to 0.00332695
Heightened Def Con from 0.00333552 to 0.00333552
Heightened Def Con from 0.00333852 to 0.00333852
Heightened Def Con from 0.00333852 to 0.00333852
Heightened Def Con from 0.00334323 to 0.00334323
Heightened Def Con from 0.00334323 to 0.00334323
Heightened Def Con from 0.00335172 to 0.00335172
Heightened Def Con from 0.00335479 to 0.00335479
Heightened Def Con from 0.00335634 to 0.00335634
Heightened Def Con from 0.00336945 to 0.00336945
Heightened Def Con from 0.00337099 ++++++++++++++++++++++++++to 0.00337099
Heightened Def Con from 0.00337322 to 0.00337322
Heightened Def Con from 0.00337322 to 0.00337322
Heightened Def Con from 0.00337717 to 0.00337717
Heightened Def Con from 0.00337948 to 0.00337948
Heightened Def Con from 0.0033872 +to 0.0033872
Heightened Def Con from 0.00339106 to 0.00339106
Heightened Def Con from 0.00340652 to 0.00340652
Heightened Def Con from 0.00340731 to 0.00340731
Heightened Def Con from 0.00340963 ++++++++++++++++++++++++++to 0.00340963
Heightened Def Con from 0.00340963 to 0.00340964
Heightened Def Con from 0.00341187 to 0.00341187
Heightened Def Con from 0.0034142 +to 0.0034142
Heightened Def Con from 0.00342586 to 0.00342586
Heightened Def Con from 0.00342586 to 0.00342586
Heightened Def Con from 0.00342738 to 0.00342738
Heightened Def Con from 0.00343279 to 0.00343279
Heightened Def Con from 0.00343425 +to 0.00343425
Heightened Def Con from 0.00343666 +to 0.00343666
Heightened Def Con from 0.00343744 to 0.00343744
Heightened Def Con from 0.00344131 to 0.00344131
Heightened Def Con from 0.00344209 to 0.0034421
Heightened Def Con from 0.00344286 to 0.00344286
Heightened Def Con from 0.00344364 to 0.00344364
Heightened Def Con from 0.00344673 to 0.00344673
Heightened Def Con from 0.00344673 to 0.00344673
Heightened Def Con from 0.00344829 to 0.00344829
Heightened Def Con from 0.00345063 to 0.00345063
Heightened Def Con from 0.00345218 to 0.00345218
Heightened Def Con from 0.00345451 to 0.00345451
Heightened Def Con from 0.00345674 to 0.00345674
Heightened Def Con from 0.00346302 to 0.00346303
Heightened Def Con from 0.00346679 to 0.00346679
Heightened Def Con from 0.00346844 to 0.00346844
Heightened Def Con from 0.00346921 ++++++++++++++++++++++++++to 0.00346921
Heightened Def Con from 0.00347076 to 0.00347076
Heightened Def Con from 0.00347308 ++++++++++++++++++++++++to 0.00347308
Heightened Def Con from 0.00347377 to 0.00347377
Heightened Def Con from 0.00347377 to 0.00347377
Heightened Def Con from 0.00347541 to 0.00347541
Heightened Def Con from 0.0034761 to 0.0034761
Heightened Def Con from 0.00347619 to 0.00347619
Heightened Def Con from 0.00347687 to 0.00347687
Heightened Def Con from 0.00347851 to 0.00347851
Heightened Def Con from 0.00348385 to 0.00348385
Heightened Def Con from 0.00348704 to 0.00348704
Heightened Def Con from 0.00348859 ++++++++++++++++++++++++++to 0.00348859
Heightened Def Con from 0.00349157 +to 0.00349157
Heightened Def Con from 0.00349553 to 0.00349553
Heightened Def Con from 0.00349708 to 0.00349708
Heightened Def Con from 0.00349785 to 0.00349785
Heightened Def Con from 0.00349785 to 0.00349785
Heightened Def Con from 0.00350251 to 0.00350252
Heightened Def Con from 0.00350717 to 0.00350717
Heightened Def Con from 0.00350872 ++++++++++++++++++++++++++to 0.00350872
Heightened Def Con from 0.00351026 to 0.00351026
Heightened Def Con from 0.00351026 to 0.00351026
Heightened Def Con from 0.00352345 to 0.00352345
Heightened Def Con from 0.00353353 to 0.00353353
Heightened Def Con from 0.00353353 to 0.00353353
Heightened Def Con from 0.0035451 +to 0.0035451
Heightened Def Con from 0.0035483 to 0.0035483
Heightened Def Con from 0.00355063 to 0.00355063
Heightened Def Con from 0.00355132 to 0.00355132
Heightened Def Con from 0.00355287 to 0.00355287
Heightened Def Con from 0.00355451 to 0.00355451
Heightened Def Con from 0.0035553 to 0.0035553
Heightened Def Con from 0.00356452 +to 0.00356452
Heightened Def Con from 0.00356461 to 0.00356461
Heightened Def Con from 0.00356771 to 0.00356771
Heightened Def Con from 0.0035716 to 0.0035716
Heightened Def Con from 0.0035723 to 0.0035723
Heightened Def Con from 0.0035723 to 0.0035723
Heightened Def Con from 0.00357316 to 0.00357317
Heightened Def Con from 0.00358094 to 0.00358094
Heightened Def Con from 0.00358325 +++++++++++++++++++++++++to 0.00358325
Heightened Def Con from 0.00359179 to 0.00359179
Heightened Def Con from 0.00359955 to 0.00359955
Heightened Def Con from 0.00360576 to 0.00360577
Heightened Def Con from 0.0036081 to 0.0036081
Heightened Def Con from 0.00360965 +to 0.00360965
Heightened Def Con from 0.00361509 to 0.00361509
Heightened Def Con from 0.00361821 to 0.00361821
Heightened Def Con from 0.00362752 to 0.00362752
Heightened Def Con from 0.00362986 to 0.00362986
Heightened Def Con from 0.00363141 to 0.00363142
Heightened Def Con from 0.00364307 to 0.00364307
Heightened Def Con from 0.0036454 to 0.00364541
Heightened Def Con from 0.00365476 to 0.00365476
Heightened Def Con from 0.00365623 to 0.00365623
Heightened Def Con from 0.00366331 +to 0.00366331
Heightened Def Con from 0.00367031 to 0.00367032
Heightened Def Con from 0.00367032 to 0.00367032
Heightened Def Con from 0.00368121 to 0.00368121
Heightened Def Con from 0.00368431 ++++++++++++++++++++++++to 0.00368431
Heightened Def Con from 0.00368664 +to 0.00368664
Heightened Def Con from 0.00369601 to 0.00369601
Heightened Def Con from 0.00369755 to 0.00369755
Heightened Def Con from 0.00370292 +to 0.00370292
Heightened Def Con from 0.00370379 to 0.00370379
Heightened Def Con from 0.00370691 to 0.00370691
Heightened Def Con from 0.00370846 +to 0.00370846
Heightened Def Con from 0.00370916 to 0.00370916
Heightened Def Con from 0.00371227 to 0.00371227
Heightened Def Con from 0.00371227 to 0.00371227
Heightened Def Con from 0.00371236 to 0.00371236
Heightened Def Con from 0.00371781 to 0.00371781
Heightened Def Con from 0.00373718 to 0.00373718
Heightened Def Con from 0.00374505 to 0.00374505
Heightened Def Con from 0.00375197 to 0.00375197
Heightened Def Con from 0.00375285 to 0.00375285
Heightened Def Con from 0.00375595 ++++++++++++++++++++++++++to 0.00375595
Heightened Def Con from 0.00375829 to 0.00375829
Heightened Def Con from 0.00375907 to 0.00375907
Heightened Def Con from 0.00376921 to 0.00376921
Heightened Def Con from 0.00377155 to 0.00377155
Heightened Def Con from 0.00377545 to 0.00377545
Heightened Def Con from 0.00377623 to 0.00377623
Heightened Def Con from 0.00377936 to 0.00377937
Heightened Def Con from 0.00377937 to 0.00377937
Heightened Def Con from 0.00378014 to 0.00378014
Heightened Def Con from 0.00378482 to 0.00378483
Heightened Def Con from 0.00378949 to 0.00378949
Heightened Def Con from 0.00379028 to 0.00379028
Heightened Def Con from 0.00379106 to 0.00379106
Heightened Def Con from 0.00379652 ++++++++++++++++++++++++++to 0.00379652
Heightened Def Con from 0.0038004 to 0.0038004
Heightened Def Con from 0.00381044 to 0.00381044
Heightened Def Con from 0.00381044 to 0.00381044
Heightened Def Con from 0.00381597 to 0.00381597
Heightened Def Con from 0.00381985 to 0.00381985
Heightened Def Con from 0.00382375 to 0.00382375
Heightened Def Con from 0.00382601 to 0.00382601
Heightened Def Con from 0.00382601 to 0.00382601
Heightened Def Con from 0.00382843 to 0.00382843
Heightened Def Con from 0.00383922 to 0.00383922
Heightened Def Con from 0.0038432 to 0.0038432
Heightened Def Con from 0.00384864 to 0.00384864
Heightened Def Con from 0.00384942 to 0.00384942
Heightened Def Con from 0.00385098 to 0.00385098
Heightened Def Con from 0.00385324 to 0.00385324
Heightened Def Con from 0.00385324 to 0.00385324
Heightened Def Con from 0.00385566 to 0.00385566
Heightened Def Con from 0.00386034 to 0.00386034
Heightened Def Con from 0.00386422 ++++++++++++++++++++++++++to 0.00386422
Heightened Def Con from 0.0038688 to 0.0038688
Heightened Def Con from 0.0038688 to 0.0038688
Heightened Def Con from 0.00386967 to 0.00386967
Heightened Def Con from 0.0038805 +to 0.0038805
Heightened Def Con from 0.00388215 to 0.00388215
Heightened Def Con from 0.00388595 to 0.00388595
Heightened Def Con from 0.00388916 to 0.00388916
Heightened Def Con from 0.00388994 ++++++++++++++++++++++++++to 0.00388994
Heightened Def Con from 0.00389151 to 0.00389152
Heightened Def Con from 0.00389304 to 0.00389305
Heightened Def Con from 0.00389538 ++++++++++++++++++++++++++to 0.00389538
Heightened Def Con from 0.00389616 +++++++++++++++++++++++++to 0.00389616
Heightened Def Con from 0.00389694 to 0.00389694
Heightened Def Con from 0.00389694 to 0.00389694
Heightened Def Con from 0.00389772 to 0.00389772
Heightened Def Con from 0.00389919 to 0.00389919
Heightened Def Con from 0.00390864 to 0.00390864
Heightened Def Con from 0.00391174 to 0.00391175
Heightened Def Con from 0.00391796 to 0.00391796
Heightened Def Con from 0.00391952 to 0.00391952
Heightened Def Con from 0.00392421 to 0.00392421
Heightened Def Con from 0.00392646 to 0.00392646
Heightened Def Con from 0.00392966 to 0.00392967
Heightened Def Con from 0.00393044 to 0.00393044
Heightened Def Con from 0.00393276 to 0.00393276
Heightened Def Con from 0.00393432 to 0.00393433
Heightened Def Con from 0.0039429 to 0.0039429
Heightened Def Con from 0.00394446 ++++++++++++++++++++++++++to 0.00394446
Heightened Def Con from 0.00394602 to 0.00394602
Heightened Def Con from 0.00394602 to 0.00394602
Heightened Def Con from 0.00394992 to 0.00394992
Heightened Def Con from 0.00395225 to 0.00395225
Heightened Def Con from 0.00395381 to 0.00395381
Heightened Def Con from 0.00395382 to 0.00395382
Heightened Def Con from 0.00395537 to 0.00395537
Heightened Def Con from 0.00395537 to 0.00395537
Heightened Def Con from 0.00396161 +to 0.00396161
Heightened Def Con from 0.0039624 to 0.0039624
Heightened Def Con from 0.00396621 to 0.00396621
Heightened Def Con from 0.00396941 to 0.00396941
Heightened Def Con from 0.00396941 to 0.00396941
Heightened Def Con from 0.00396942 to 0.00396942
Heightened Def Con from 0.00397868 +++++++++++++++++++++++++to 0.00397868
Heightened Def Con from 0.00397876 ++++++++++++++++++++++++to 0.00397876
Heightened Def Con from 0.00398498 to 0.00398498
Heightened Def Con from 0.00398654 ++++++++++++++++++++++++++to 0.00398654
Heightened Def Con from 0.00399044 to 0.00399044
Heightened Def Con from 0.00399357 to 0.00399357
Heightened Def Con from 0.00399514 to 0.00399514
Heightened Def Con from 0.00399747 to 0.00399747
Heightened Def Con from 0.00399893 +to 0.00399893
Heightened Def Con from 0.00400057 ++++++++++++++++++++++++++to 0.00400057
Heightened Def Con from 0.00400126 to 0.00400126
Heightened Def Con from 0.00400126 to 0.00400126
Heightened Def Con from 0.00400516 to 0.00400516
Heightened Def Con from 0.00400594 to 0.00400594
Heightened Def Con from 0.00400594 to 0.00400594
Heightened Def Con from 0.00401294 to 0.00401294
Heightened Def Con from 0.00401294 to 0.00401294
Heightened Def Con from 0.00401303 ++++++++++++++++++++++++++to 0.00401303
Heightened Def Con from 0.00401382 to 0.00401382
Heightened Def Con from 0.0040145 to 0.0040145
Heightened Def Con from 0.00401606 to 0.00401606
Heightened Def Con from 0.00401685 to 0.00401685
Heightened Def Con from 0.00401685 to 0.00401685
Heightened Def Con from 0.00401763 to 0.00401763
Heightened Def Con from 0.00401849 ++++++++++++++++++++++++++to 0.00401849
Heightened Def Con from 0.00402238 to 0.00402238
Heightened Def Con from 0.00402309 to 0.00402309
Heightened Def Con from 0.00402395 to 0.00402395
Heightened Def Con from 0.00402473 to 0.00402473
Heightened Def Con from 0.00402551 to 0.00402551
Heightened Def Con from 0.00402708 +++++++++++++++++++++++++to 0.00402708
Heightened Def Con from 0.00402943 to 0.00402943
Heightened Def Con from 0.00403099 ++++++++++++++++++++++++++to 0.00403099
Heightened Def Con from 0.00403177 to 0.00403177
Heightened Def Con from 0.00403558 to 0.00403558
Heightened Def Con from 0.00403792 to 0.00403792
Heightened Def Con from 0.004038 to 0.004038
Heightened Def Con from 0.00404501 to 0.00404502
Heightened Def Con from 0.00404726 to 0.00404727
Heightened Def Con from 0.00405192 to 0.00405192
Heightened Def Con from 0.00405192 to 0.00405192
Heightened Def Con from 0.00405279 to 0.00405279
Heightened Def Con from 0.00405426 to 0.00405426
Heightened Def Con from 0.00405426 to 0.00405426
Heightened Def Con from 0.00405669 to 0.0040567
Heightened Def Con from 0.00406606 to 0.00406606
Heightened Def Con from 0.00406683 +to 0.00406683
Heightened Def Con from 0.00406839 to 0.00406839
Heightened Def Con from 0.00407073 ++++++++++++++++++++++++++to 0.00407073
Heightened Def Con from 0.00407229 to 0.00407229
Heightened Def Con from 0.00408007 to 0.00408007
Heightened Def Con from 0.00408085 ++++++++++++++++++++++++++to 0.00408085
Heightened Def Con from 0.00408086 to 0.00408086
Heightened Def Con from 0.00408545 to 0.00408545
Heightened Def Con from 0.00409254 to 0.00409254
Heightened Def Con from 0.00410499 to 0.004105
Heightened Def Con from 0.00410956 to 0.00410956
Heightened Def Con from 0.00410956 to 0.00410956
Heightened Def Con from 0.00410965 to 0.00410965
Heightened Def Con from 0.00411818 to 0.00411818
Heightened Def Con from 0.00411895 to 0.00411895
Heightened Def Con from 0.00411895 to 0.00411895
Heightened Def Con from 0.00412357 to 0.00412357
Heightened Def Con from 0.00414081 to 0.00414081
Heightened Def Con from 0.00414228 to 0.00414228
Heightened Def Con from 0.00414882 ++++++++++++++++++++to 0.00414882
Heightened Def Con from 0.00415449 to 0.00415449
Heightened Def Con from 0.00415581 to 0.00415582
Heightened Def Con from 0.00415582 to 0.00415582
Heightened Def Con from 0.00415801 to 0.00415801
Heightened Def Con from 0.0041601 to 0.0041601
Heightened Def Con from 0.00416422 to 0.00416422
Heightened Def Con from 0.0041655 to 0.0041655
Heightened Def Con from 0.0041655 to 0.0041655
Heightened Def Con from 0.00416761 to 0.00416761
Heightened Def Con from 0.00418082 to 0.00418082
Heightened Def Con from 0.00418211 ++++++++++++++++++++++++++to 0.00418211
Heightened Def Con from 0.00418467 to 0.00418467
Heightened Def Con from 0.00418974 to 0.00418974
Heightened Def Con from 0.00420068 to 0.00420068
Heightened Def Con from 0.00420068 to 0.00420068
Heightened Def Con from 0.00420077 to 0.00420078
Heightened Def Con from 0.00420187 to 0.00420188
Heightened Def Con from 0.00420434 to 0.00420434
Heightened Def Con from 0.00420544 to 0.00420544
Heightened Def Con from 0.00420729 to 0.00420729
Heightened Def Con from 0.00421472 to 0.00421472
Heightened Def Con from 0.00421935 to 0.00421935
Heightened Def Con from 0.00422766 +++++++++++++++++++++++++to 0.00422766
Heightened Def Con from 0.0042292 to 0.0042292
Heightened Def Con from 0.00423467 to 0.00423467
Heightened Def Con from 0.0042352 +++++++++++++++++++++++++to 0.0042352
Heightened Def Con from 0.00423837 to 0.00423837
Heightened Def Con from 0.00423837 to 0.00423837
Heightened Def Con from 0.00424047 to 0.00424047
Heightened Def Con from 0.00424306 to 0.00424307
Heightened Def Con from 0.00424359 to 0.00424359
Heightened Def Con from 0.00425073 +++++++++++++++++++++++++to 0.00425073
Heightened Def Con from 0.00425114 to 0.00425114
Heightened Def Con from 0.00425124 +++++++++++++++++++++++++to 0.00425124
Heightened Def Con from 0.0042597 to 0.0042597
Heightened Def Con from 0.00426454 to 0.00426454
Heightened Def Con from 0.00427262 to 0.00427262
Heightened Def Con from 0.00427403 to 0.00427403
Heightened Def Con from 0.0042744 to 0.0042744
Heightened Def Con from 0.00427634 to 0.00427634
Heightened Def Con from 0.00427773 to 0.00427773
Heightened Def Con from 0.00428175 to 0.00428175
Heightened Def Con from 0.00428175 to 0.00428175
Heightened Def Con from 0.0042822 to 0.00428221
Heightened Def Con from 0.00429171 to 0.00429171
Heightened Def Con from 0.0042939 to 0.0042939
Heightened Def Con from 0.0042974 to 0.0042974
Heightened Def Con from 0.0042987 to 0.0042987
Heightened Def Con from 0.00429914 to 0.00429914
Heightened Def Con from 0.0043013 to 0.0043013
Heightened Def Con from 0.00430163 to 0.00430164
Heightened Def Con from 0.00430164 to 0.00430164
Heightened Def Con from 0.00430334 to 0.00430334
Heightened Def Con from 0.00431356 to 0.00431356
Heightened Def Con from 0.00431388 to 0.00431388
Heightened Def Con from 0.00431388 to 0.00431388
Heightened Def Con from 0.00431605 +to 0.00431605
Heightened Def Con from 0.00431801 to 0.00431801
Heightened Def Con from 0.00432251 to 0.00432251
Heightened Def Con from 0.00432382 to 0.00432382
Heightened Def Con from 0.00432574 to 0.00432574
Heightened Def Con from 0.00432905 +++++++++++++++++++++++++to 0.00432905
Heightened Def Con from 0.00433015 to 0.00433015
Heightened Def Con from 0.00433025 to 0.00433025
Heightened Def Con from 0.00433303 to 0.00433303
Heightened Def Con from 0.00433372 to 0.00433372
Heightened Def Con from 0.00433451 to 0.00433451
Heightened Def Con from 0.00433647 to 0.00433647
Heightened Def Con from 0.00433882 to 0.00433882
Heightened Def Con from 0.00434318 +to 0.00434318
Heightened Def Con from 0.00434957 to 0.00434957
Heightened Def Con from 0.00434957 to 0.00434957
Heightened Def Con from 0.00435222 to 0.00435222
Heightened Def Con from 0.00435597 to 0.00435597
Heightened Def Con from 0.00435783 to 0.00435783
Heightened Def Con from 0.00435979 to 0.00435979
Heightened Def Con from 0.00436127 to 0.00436127
Heightened Def Con from 0.00436238 to 0.00436238
Heightened Def Con from 0.00436458 to 0.00436458
Heightened Def Con from 0.00436495 +++++++++++++++++++++++++to 0.00436495
Heightened Def Con from 0.00436751 to 0.00436751
Heightened Def Con from 0.00437175 to 0.00437176
Heightened Def Con from 0.00437294 to 0.00437294
Heightened Def Con from 0.00437438 +++++++++++++++++++++++++to 0.00437438
Heightened Def Con from 0.00437474 +++++++++++++++++++++++++to 0.00437474
Heightened Def Con from 0.00438245 to 0.00438245
Heightened Def Con from 0.00438245 to 0.00438245
Heightened Def Con from 0.00438351 to 0.00438351
Heightened Def Con from 0.00438386 to 0.00438386
Heightened Def Con from 0.00438631 to 0.00438631
Heightened Def Con from 0.00438887 to 0.00438887
Heightened Def Con from 0.00439061 ++++++++++++++++++++++++to 0.00439061
Heightened Def Con from 0.00440046 to 0.00440046
Heightened Def Con from 0.00440193 to 0.00440193
Heightened Def Con from 0.00440317 to 0.00440317
Heightened Def Con from 0.00440396 to 0.00440396
Heightened Def Con from 0.00440664 +to 0.00440664
Heightened Def Con from 0.00440888 +to 0.00440889
Heightened Def Con from 0.00440899 to 0.00440899
Heightened Def Con from 0.00441431 to 0.00441431
Heightened Def Con from 0.00442243 to 0.00442243
Heightened Def Con from 0.00442416 +to 0.00442416
Heightened Def Con from 0.00442871 to 0.00442871
Heightened Def Con from 0.00443128 to 0.00443128
Heightened Def Con from 0.00443448 to 0.00443448
Heightened Def Con from 0.00443768 +to 0.00443768
Heightened Def Con from 0.00444605 to 0.00444605
Heightened Def Con from 0.00444773 +to 0.00444773
Heightened Def Con from 0.00444992 to 0.00444992
Heightened Def Con from 0.00445012 to 0.00445012
Heightened Def Con from 0.00445012 to 0.00445012
Heightened Def Con from 0.00445024 to 0.00445024
Heightened Def Con from 0.00445292 to 0.00445292
Heightened Def Con from 0.00445335 to 0.00445335
Heightened Def Con from 0.00445335 to 0.00445335
Heightened Def Con from 0.00445634 +to 0.00445634
Heightened Def Con from 0.00445738 to 0.00445738
Heightened Def Con from 0.00445769 to 0.00445769
Heightened Def Con from 0.00445985 +to 0.00445985
Heightened Def Con from 0.00446324 to 0.00446324
Heightened Def Con from 0.00446373 +to 0.00446373
Heightened Def Con from 0.0044727 +to 0.0044727
Heightened Def Con from 0.00447541 to 0.00447541
Heightened Def Con from 0.00447541 to 0.00447541
Heightened Def Con from 0.0044789 to 0.0044789
Heightened Def Con from 0.0044789 to 0.0044789
Heightened Def Con from 0.00448291 to 0.00448292
Heightened Def Con from 0.00448828 +to 0.00448828
Heightened Def Con from 0.00448994 to 0.00448994
Heightened Def Con from 0.00448994 to 0.00448994
Heightened Def Con from 0.00449023 to 0.00449023
Heightened Def Con from 0.00449243 to 0.00449243
Heightened Def Con from 0.0044935 to 0.0044935
Heightened Def Con from 0.0044935 to 0.0044935
Heightened Def Con from 0.00449527 to 0.00449527

Date: Mon Feb 09 22:06:18 2026
Total elapsed time: 213.382 seconds.

tnom = 27
temp = 27
method = modified trap
totiter = 26459319
traniter = 26459301
tranpoints = 5978083
accept = 4072992
rejected = 1909076
matrix size = 72
fillins = 24
solver = Normal
Matrix Compiler1: 5.01 KB object code size  1.8/1.3/[0.8]
Matrix Compiler2: 5.98 KB object code size  1.1/1.6/[0.8]

